10
 
N    0.0000000   0.0000000   1.4221420
N    0.0000000   0.0000000  -1.4221420
C    0.0000000   1.1326270   0.6985250
C    0.0000000  -1.1326270   0.6985250
C    0.0000000  -1.1326270  -0.6985250
C    0.0000000   1.1326270  -0.6985250
H    0.0000000   2.0665880   1.2529210
H    0.0000000  -2.0665880   1.2529210
H    0.0000000  -2.0665880  -1.2529210
H    0.0000000   2.0665880  -1.2529210
10
 
N    0.0000000   0.0000000   1.4221420
N    0.0000000   0.0000000  -1.4221420
C   -0.0065210   1.1326270   0.6985250
C    0.0065210  -1.1326270   0.6985250
C    0.0065210  -1.1326270  -0.6985250
C   -0.0065210   1.1326270  -0.6985250
H    0.0425521   2.0665880   1.2529210
H   -0.0425521  -2.0665880   1.2529210
H   -0.0425521  -2.0665880  -1.2529210
H    0.0425521   2.0665880  -1.2529210
10
 
N    0.0000000   0.0000000   1.4221420
N    0.0000000   0.0000000  -1.4221420
C   -0.0130421   1.1326270   0.6985250
C    0.0130421  -1.1326270   0.6985250
C    0.0130421  -1.1326270  -0.6985250
C   -0.0130421   1.1326270  -0.6985250
H    0.0851043   2.0665880   1.2529210
H   -0.0851043  -2.0665880   1.2529210
H   -0.0851043  -2.0665880  -1.2529210
H    0.0851043   2.0665880  -1.2529210
10
 
N    0.0000000   0.0000000   1.4221420
N    0.0000000   0.0000000  -1.4221420
C   -0.0195631   1.1326270   0.6985250
C    0.0195631  -1.1326270   0.6985250
C    0.0195631  -1.1326270  -0.6985250
C   -0.0195631   1.1326270  -0.6985250
H    0.1276564   2.0665880   1.2529210
H   -0.1276564  -2.0665880   1.2529210
H   -0.1276564  -2.0665880  -1.2529210
H    0.1276564   2.0665880  -1.2529210
10
 
N    0.0000000   0.0000000   1.4221420
N    0.0000000   0.0000000  -1.4221420
C   -0.0260842   1.1326270   0.6985250
C    0.0260842  -1.1326270   0.6985250
C    0.0260842  -1.1326270  -0.6985250
C   -0.0260842   1.1326270  -0.6985250
H    0.1702085   2.0665880   1.2529210
H   -0.1702085  -2.0665880   1.2529210
H   -0.1702085  -2.0665880  -1.2529210
H    0.1702085   2.0665880  -1.2529210
10
 
N    0.0000000   0.0000000   1.4221420
N    0.0000000   0.0000000  -1.4221420
C   -0.0326052   1.1326270   0.6985250
C    0.0326052  -1.1326270   0.6985250
C    0.0326052  -1.1326270  -0.6985250
C   -0.0326052   1.1326270  -0.6985250
H    0.2127606   2.0665880   1.2529210
H   -0.2127606  -2.0665880   1.2529210
H   -0.2127606  -2.0665880  -1.2529210
H    0.2127606   2.0665880  -1.2529210
10
 
N    0.0000000   0.0000000   1.4221420
N    0.0000000   0.0000000  -1.4221420
C   -0.0391263   1.1326270   0.6985250
C    0.0391263  -1.1326270   0.6985250
C    0.0391263  -1.1326270  -0.6985250
C   -0.0391263   1.1326270  -0.6985250
H    0.2553128   2.0665880   1.2529210
H   -0.2553128  -2.0665880   1.2529210
H   -0.2553128  -2.0665880  -1.2529210
H    0.2553128   2.0665880  -1.2529210
10
 
N    0.0000000   0.0000000   1.4221420
N    0.0000000   0.0000000  -1.4221420
C   -0.0456473   1.1326270   0.6985250
C    0.0456473  -1.1326270   0.6985250
C    0.0456473  -1.1326270  -0.6985250
C   -0.0456473   1.1326270  -0.6985250
H    0.2978649   2.0665880   1.2529210
H   -0.2978649  -2.0665880   1.2529210
H   -0.2978649  -2.0665880  -1.2529210
H    0.2978649   2.0665880  -1.2529210
10
 
N    0.0000000   0.0000000   1.4221420
N    0.0000000   0.0000000  -1.4221420
C   -0.0521684   1.1326270   0.6985250
C    0.0521684  -1.1326270   0.6985250
C    0.0521684  -1.1326270  -0.6985250
C   -0.0521684   1.1326270  -0.6985250
H    0.3404170   2.0665880   1.2529210
H   -0.3404170  -2.0665880   1.2529210
H   -0.3404170  -2.0665880  -1.2529210
H    0.3404170   2.0665880  -1.2529210
10
 
N    0.0000000   0.0000000   1.4221420
N    0.0000000   0.0000000  -1.4221420
C   -0.0586894   1.1326270   0.6985250
C    0.0586894  -1.1326270   0.6985250
C    0.0586894  -1.1326270  -0.6985250
C   -0.0586894   1.1326270  -0.6985250
H    0.3829691   2.0665880   1.2529210
H   -0.3829691  -2.0665880   1.2529210
H   -0.3829691  -2.0665880  -1.2529210
H    0.3829691   2.0665880  -1.2529210
10
 
N    0.0000000   0.0000000   1.4221420
N    0.0000000   0.0000000  -1.4221420
C   -0.0652105   1.1326270   0.6985250
C    0.0652105  -1.1326270   0.6985250
C    0.0652105  -1.1326270  -0.6985250
C   -0.0652105   1.1326270  -0.6985250
H    0.4255213   2.0665880   1.2529210
H   -0.4255213  -2.0665880   1.2529210
H   -0.4255213  -2.0665880  -1.2529210
H    0.4255213   2.0665880  -1.2529210
